<?xml version="1.0" encoding="UTF-8"?>

<!-- generated on 2026-01-25T23:49:09.910125-05:00 by Eclipse SUMO sumo 1.25.0
-->

<sumoConfiguration xmlns:xsi="http://www.w3.org/2001/XMLSchema-instance" xsi:noNamespaceSchemaLocation="http://sumo.dlr.de/xsd/sumoConfiguration.xsd">

    <input>
        <net-file value="4-point.net.xml"/>
        <route-files value="4-point.rou.xml"/>
    </input>

</sumoConfiguration>
