<?xml version="1.0" encoding="UTF-8"?>

<!-- generated on 2025-12-14T20:56:15.216738-05:00 by Eclipse SUMO netedit 1.25.0
-->

<routes xmlns:xsi="http://www.w3.org/2001/XMLSchema-instance" xsi:noNamespaceSchemaLocation="http://sumo.dlr.de/xsd/routes_file.xsd">
    <!-- Vehicles, persons and containers (sorted by depart) -->
    <flow id="f_0" begin="0.00" end="3600.00" perHour="500.00" color="grey" from="E0" to="E0.51"/>
    <flow id="f_1" begin="0.00" end="3600.00" perHour="500.00" color="red" from="E0" to="E1.40"/>
    <flow id="f_10" begin="0.00" end="3600.00" perHour="500.00" color="0,0,128" from="-E1" to="-E1.24"/>
    <flow id="f_11" begin="0.00" end="3600.00" perHour="500.00" color="128,128,0" from="-E1" to="E0.51"/>
    <flow id="f_2" begin="0.00" end="3600.00" perHour="500.00" color="white" from="E0" to="-E1.24"/>
    <flow id="f_3" begin="0.00" end="3600.00" perHour="500.00" color="green" from="-E0" to="E1.40"/>
    <flow id="f_4" begin="0.00" end="3600.00" perHour="500.00" color="blue" from="-E0" to="-E0.47"/>
    <flow id="f_5" begin="0.00" end="3600.00" perHour="500.00" from="-E0" to="-E1.24"/>
    <flow id="f_6" begin="0.00" end="3600.00" perHour="500.00" color="cyan" from="E1" to="E0.51"/>
    <flow id="f_7" begin="0.00" end="3600.00" perHour="500.00" color="magenta" from="E1" to="E1.40"/>
    <flow id="f_8" begin="0.00" end="3600.00" perHour="500.00" color="128,0,0" from="E1" to="-E0.47"/>
    <flow id="f_9" begin="0.00" end="3600.00" perHour="500.00" color="0,128,0" from="-E1" to="-E0.47"/>
</routes>
